Version 4
SHEET 1 880 680
WIRE -208 -176 -272 -176
WIRE 48 -176 -208 -176
WIRE 256 -176 48 -176
WIRE 256 -160 256 -176
WIRE 48 -144 48 -176
WIRE -272 -128 -272 -176
WIRE 16 -128 -128 -128
WIRE 192 -112 80 -112
WIRE 16 -96 -16 -96
WIRE 256 -16 256 -64
WIRE 416 -16 256 -16
WIRE 192 64 112 64
WIRE 208 64 192 64
WIRE -208 96 -208 -176
WIRE 80 96 -208 96
WIRE 192 112 192 64
WIRE 368 112 368 64
WIRE 368 112 192 112
WIRE 96 144 96 128
WIRE 128 144 128 128
WIRE 256 144 256 80
WIRE 256 144 128 144
WIRE -16 288 -16 -96
WIRE 256 288 256 208
WIRE 256 288 -16 288
WIRE 416 288 416 80
WIRE 416 288 256 288
WIRE 256 336 256 288
WIRE 256 480 256 416
FLAG 256 480 0
FLAG -128 -48 0
FLAG -272 -48 0
FLAG 48 -80 0
FLAG 144 96 0
FLAG 96 224 0
SYMBOL pnp 192 -64 M180
SYMATTR InstName Q1
SYMBOL nmos 368 -16 R0
SYMATTR InstName M1
SYMATTR Value AO6408
SYMBOL pmos 208 -16 R0
SYMATTR InstName M2
SYMATTR Value AO6407
SYMBOL cap 240 144 R0
SYMATTR InstName C1
SYMATTR Value 100µ
SYMBOL res 240 320 R0
WINDOW 0 15 56 Left 2
SYMATTR InstName R1
SYMATTR Value 20
SYMBOL voltage 96 128 R0
WINDOW 123 0 0 Left 2
WINDOW 39 0 0 Left 2
SYMATTR InstName V1
SYMATTR Value 4
SYMBOL voltage -128 -144 R0
WINDOW 123 0 0 Left 2
WINDOW 39 0 0 Left 2
SYMATTR InstName V2
SYMATTR Value 1
SYMBOL voltage -272 -144 R0
WINDOW 123 0 0 Left 2
WINDOW 39 0 0 Left 2
SYMATTR InstName V3
SYMATTR Value PULSE(0 5 0 1n 1n 10 20 1)
SYMBOL Opamps\\UniversalOpamp2 48 -112 R0
SYMATTR InstName U1
SYMATTR SpiceLine ilimit=5m rail=0 Vos=0 phimargin=45
SYMBOL Opamps\\UniversalOpamp2 112 96 R270
SYMATTR InstName U2
SYMATTR SpiceLine ilimit=5m rail=0 Vos=0 phimargin=45
TEXT -304 504 Left 2 !.tran 100m
